<?xml version="1.0" encoding="UTF-8"?>

<!-- generated on 2024-01-26 22:41:38 by Eclipse SUMO duarouter Version 1.19.0
<configuration xmlns:xsi="http://www.w3.org/2001/XMLSchema-instance" xsi:noNamespaceSchemaLocation="http://sumo.dlr.de/xsd/duarouterConfiguration.xsd">

    <input>
        <net-file value="osm_andre.net.xml"/>
        <route-files value="flows.xml"/>
    </input>

    <output>
        <output-file value="traffic_demand_proj11.rou.xml"/>
    </output>

    <processing>
        <repair value="true"/>
        <repair.from value="true"/>
        <repair.to value="true"/>
        <routing-algorithm value="astar"/>
    </processing>

</configuration>
-->

<routes xmlns:xsi="http://www.w3.org/2001/XMLSchema-instance" xsi:noNamespaceSchemaLocation="http://sumo.dlr.de/xsd/routes_file.xsd">
    <vehicle id="10102207.0" depart="0.00">
        <route edges="199381112 23121883 843033245 199381118#0 3991778 342997240 3677823#0 3677823#2 3677823#4 3677823#5 655251292 131571763 86164005#0 86164005#1 3677330#0 23237287#0 3677332 1055164587 55067673 3677944#0 3677944#1 174338458#1 521193380 429706864 813979472 79289746 813979470 249333186 249333185 8131121 8131121-AddedOffRampEdge 1081668996 3358667 -192559651#1 3358670 23837546#0"/>
    </vehicle>
    <vehicle id="10150877.0" depart="0.00">
        <route edges="-800673084#1 192706272#4 -10649853 10682496 10682497 69087166 -35731415#7 -35731415#6 -35731415#5 23707241 25155107#0 61596558#0 126304939#0 -1010515587#1 -25155106#2 128494230 -126304967#6 -126304967#4 -126304967#1 -61596289#0 -23707243#2 -23707243#1 -23707244 125835524#0 4061640#0 61540068 254801390 61540098 8131040 1085888986 85048201 3877104 125835586 146171867-AddedOnRampEdge 146171867 146171867-AddedOffRampEdge 23837543 3680457 225605633-AddedOnRampEdge 225605633 78568454 270181177#0"/>
    </vehicle>
    <vehicle id="10278645.0" depart="0.00">
        <route edges="-23436187#4 1196057749 23707218#6 -23707218#0 -112917228 -1192094894 31058502#0 31058502#1 126304965#0 126304965#4 327293825#0 327293825#1 327293825#2 126304945 -25155106#2 128494230 -126304967#6 -126304967#4 -126304967#1 -61596289#0 -23707243#2 -23707243#1 -23707244 125835524#0 4061640#0 61540068 254801390 61540098 8131040 1085888986 97209986 139807121#0 292472307#0 147850151#4 147850135#0 147850135#1 -147850135#4"/>
    </vehicle>
    <vehicle id="10335287.0" depart="0.00">
        <route edges="-14360292#5 14360292#5 14360292#6 11094212#1 -688347311#3 -688347311#2 -23889534#5 -23889534#4 -23889534#3 -23889534#0 -1201659269 116692563 -521257409#4 -521257409#1 -24905455#6 -24905455#4 -24905455#0 -608715553#4 -608715553#3 -61596289#0 -23707243#2 -23707243#1 -23707244 125835524#0 4061640#0 61540068 254801390 61540098 8131040 1085888986 97209986 125835623#0 146171935-AddedOnRampEdge 146171935 125835580#0 125835582#1 -125835582#1"/>
    </vehicle>
    <vehicle id="10338843.0" depart="0.00">
        <route edges="35731426#0 35731426#1 11256343#3 10649854#0 419978206 -608916230 -80341408#2 -742307327#1 -742307327#0 -742307325 -742307323 -152919736#2 -20681390#1 -17023727 -121562246 -586268886#0 -608715536#2 -608715536#0 863272997 4003927#2 4003927#5 19793254 4884714#0 254811217#0 85044941 263138306 61540068 254801390 61540098 8131040 1085888986 97209986 139807121#0 292472307#0 147850151#4 147850135#0 -125133233#2 125133233#2"/>
    </vehicle>
    <vehicle id="10505649.0" depart="0.00">
        <route edges="23707017 14359730#3 23707018#0 14360291#0 14360292#1 14360292#5 14360292#6 11094212#1 -688347311#3 -688347311#2 -23889534#5 -23889534#4 -23889534#3 -23889534#0 -1201659269 116692563 -521257409#4 -521257409#1 -24905455#6 -24905455#4 -24905455#0 -608715553#4 -608715553#3 -61596289#0 -23707243#2 -23707243#1 -23707244 125835524#0 4061640#0 61540068 254801390 61540098 8131040 1085888986 97209986 139807121#0 292472307#0 292472297 292472294 14276598#0"/>
    </vehicle>
    <vehicle id="10512075.0" depart="0.00">
        <route edges="-10649854#2 10649854#0 419978206 -608916230 -80341408#2 -742307327#1 -742307327#0 -742307325 -742307323 -152919736#2 -20681390#1 -17023727 -121562246 -586268886#0 -608715536#2 -608715536#0 863272997 4003927#2 4003927#5 19793254 4884714#0 254811217#0 85044941 263138306 61540068 254801390 61540098 8131040 1085888986 85048201 3877104 125835586 146171867-AddedOnRampEdge 146171867 146171867-AddedOffRampEdge 23837543 3680457 225605633-AddedOnRampEdge 225605633 78568454 270181177#0 813970228 813970226 13067134 249333187 249333181#0"/>
    </vehicle>
    <vehicle id="10552298.0" depart="0.00">
        <route edges="-11094212#3 -688347311#3 -688347311#2 -23889534#5 -23889534#4 -23889534#3 -23889534#0 -1201659269 116692563 -521257409#4 -521257409#1 -24905455#6 -24905455#4 -24905455#0 -608715553#4 -608715553#3 -61596289#0 -23707243#2 -23707243#1 -23707244 125835524#0 4061640#0 61540068 254801390 61540098 8131040 1085888986 97209986 139807121#0 292472307#0"/>
    </vehicle>
    <vehicle id="10572671.0" depart="0.00">
        <route edges="69162804#0 69162802 -10672174#6 -10672174#0 23436187#0 23707215#0 23707215#3 -10672177#1 -112917228 -1192094894 31058502#0 31058502#1 126304965#0 126304965#4 327293825#0 327293825#1 327293825#2 126304945 -25155106#2 128494230 -126304967#6 -126304967#4 -126304967#1 -61596289#0 -23707243#2 -23707243#1 -23707244 125835524#0 4061640#0 61540068 254801390 61540098 8131040 1085888986 97209986 125835623#0 146171935-AddedOnRampEdge 146171935 125835580#0 125835582#1 27818682#0 -154927153#2 -154927153#1"/>
    </vehicle>
    <vehicle id="10661721.0" depart="0.00">
        <route edges="-69162796#0 69162796#0 69162793#2 -1227802094#0 -11094212#3 -688347311#3 -688347311#2 -23889534#5 -23889534#4 -23889534#3 -23889534#0 -1201659269 116692563 -521257409#4 -521257409#1 -24905455#6 -24905455#4 -24905455#0 -608715553#4 -608715553#3 -61596289#0 -23707243#2 -23707243#1 -23707244 125835524#0 4061640#0 61540068 254801390 61540098 8131040 1085888986 97209986 139807121#0 292472307#0 292472313 192559620 292472302#0 139807118 139807119 292472289 40404013 292472283 4884481#0 949703710-AddedOnRampEdge 949703710 345592223 4858802 326736783"/>
    </vehicle>
    <vehicle id="1067565.0" depart="0.00">
        <route edges="-31058502#2 -31058502#0 -10657957#14 -10657957#8 -25155107#1 12195285 -101619135#12 -101619135#8 -101619135#7 -101619135#6 -101619135#3 -101619135#2 101619136#0 1036486946 16377030#0 1036486947#0 499072205#0 -20681390#1 -17023727 -121562246 -9864377#3 916922550#3 83869544 -858200640#1 -48540797 -8074632#4 -85798761 -23121879 3701209 10156323#0"/>
    </vehicle>
    <vehicle id="10721369.0" depart="0.00">
        <route edges="-23707017 14359730#2 14359730#3 23707018#0 14360291#0 14360292#1 14360292#5 14360292#6 11094212#1 -688347311#3 -688347311#2 -23889534#5 -23889534#4 -23889534#3 -23889534#0 -1201659269 116692563 -521257409#4 -521257409#1 -24905455#6 -24905455#4 -24905455#0 -608715553#4 -608715553#3 -61596289#0 -23707243#2 -23707243#1 -23707244 125835524#0 4061640#0 61540068 254801390 61540098 8131040 1085888986 85048201 3877104 125835586 146171867-AddedOnRampEdge"/>
    </vehicle>
    <vehicle id="10734378.0" depart="0.00">
        <route edges="-14359730#4 14359730#3 23707018#0 14360291#0 14360292#1 14360292#5 14360292#6 11094212#1 -688347311#3 -688347311#2 -23889534#5 -23889534#4 -23889534#3 -23889534#0 -1201659269 116692563 -521257409#4 -521257409#1 -24905455#6 -24905455#4 -24905455#0 -608715553#4 -608715553#3 -61596289#0 -23707243#2 -23707243#1 -23707244 125835524#0 4061640#0 61540068 254801390 61540098 8131040 1085888986 97209986 125835623#0 146171935-AddedOnRampEdge 146171935 125835580#0 125835582#1 295225456#2 147850134#0 -27818682#7"/>
    </vehicle>
    <vehicle id="10749277.0" depart="0.00">
        <route edges="-11256344#0 11256343#1 11256343#3 10649854#0 419978206 -608916230 -80341408#2 -742307327#1 -742307327#0 -742307325 -742307323 -152919736#2 -20681390#1 -17023727 -121562246 -586268886#0 -608715536#2 -608715536#0 863272997 4003927#2 4003927#5 19793254 4884714#0 254811217#0 85044941 263138306 61540068 254801390 61540098 8131040 1085888986 85048201 3877104 125835586 146171867-AddedOnRampEdge 146171867 146171867-AddedOffRampEdge 23837543 3680457 225605633-AddedOnRampEdge 225605633 78568454 270181177#0"/>
    </vehicle>
    <vehicle id="10828249.0" depart="0.00">
        <route edges="69162801#0 -69162804#0 -69162796#1 69162793#2 -1227802094#0 -11094212#3 -688347311#3 -688347311#2 -23889534#5 -23889534#4 -23889534#3 -23889534#0 -1201659269 116692563 -521257409#4 -521257409#1 -24905455#6 -24905455#4 -24905455#0 -608715553#4 -608715553#3 -61596289#0 -23707243#2 -23707243#1 -23707244 125835524#0 4061640#0 61540068 254801390 61540098 8131040 1085888986 97209986 139807121#0 292472307#0 292472313 192559620 292472302#0 139807118"/>
    </vehicle>
    <vehicle id="10852627.0" depart="0.00">
        <route edges="318218558 11094143#0 11094212#0 11094212#1 -688347311#3 -688347311#2 -23889534#5 -23889534#4 -23889534#3 -23889534#0 -1201659269 116692563 -521257409#4 -521257409#1 -24905455#6 -24905455#4 -24905455#0 -608715553#4 -608715553#3 -61596289#0 -23707243#2 -23707243#1 -23707244 125835524#0 4061640#0 61540068 254801390 61540098 8131040 1085888986 97209986 139807121#0 292472307#0 292472313 192559620 292472302#0 139807118 139807119 292472289 40404013 292472283 4884481#0 949703710-AddedOnRampEdge 949703710"/>
    </vehicle>
    <vehicle id="10852978.0" depart="0.00">
        <route edges="318218558 11094143#0 11094212#0 11094212#1 -688347311#3 -688347311#2 -23889534#5 -23889534#4 -23889534#3 -23889534#0 -1201659269 116692563 -521257409#4 -521257409#1 -24905455#6 -24905455#4 -24905455#0 -608715553#4 -608715553#3 -61596289#0 -23707243#2 -23707243#1 -23707244 125835524#0 4061640#0 61540068 254801390 61540098 8131040 1085888986 85048201 3877104 125835586 146171867-AddedOnRampEdge 146171867 146171867-AddedOffRampEdge 23837543 3680457 225605633-AddedOnRampEdge 225605633 78568454 8131119"/>
    </vehicle>
    <vehicle id="10892137.0" depart="0.00">
        <route edges="3677336 16771609 1047365121#0 3390192 461159345 88361317#0 3677944#0 3677944#1 174338458#1 521193380 429706864 813979472 1125278613 178712524#1 178712112 -189453004#3 189453001 1088722135#0 1088722135#1 3752557 112917239#0"/>
    </vehicle>
    <vehicle id="10988172.0" depart="0.00">
        <route edges="3731773#3 3731773#5 3731773#8 16771605#3 192559607#6 8129999#0 125835597#0 578662065 199586552#0 125835626#0 -53203693#1 572470968#0 1060267622#0 1060267621#0 1060267621#1 572469212#0 609188307#0 609188307#1 972466928 609188309 609191280#0 9388654#0 340265943 340265954 326736774 326736775 225605578 3992554 474466465 136819238#0 949703711 139807120#0 192559621 292472310#0 292472313"/>
    </vehicle>
    <vehicle id="11034224.0" depart="0.00">
        <route edges="3752543 120320205#2 -578662079 -123929644#2 -123929644#0 -813979468 -521257400#1 429706864 813979472 79289746 813979470 249333186 249333185 8131121 8131121-AddedOffRampEdge 225605630 23837544-AddedOnRampEdge 23837544 146171871"/>
    </vehicle>
    <vehicle id="1105183.0" depart="0.00">
        <route edges="70006862#0 70006868#1 70006872#1 -35731415#6 -35731415#5 23707241 12195285 -101619135#12 -101619135#8 -101619135#7 -101619135#6 -101619135#3 -101619135#2 101619136#0 1036486946 16377030#0 1036486947#0 499072205#0 -20681390#1 -17023727 -121562246 -9864377#3 916922550#3 83869544 -858200640#1 -48540797 -8074632#4 -85798761 -23121879 3701209 301615094#0 301615094#2 301615094#4 301615094#7 301615094#11 301615094#18 -3701206#53 3701201#0 8128927#0 8128928#0 8128929#0"/>
    </vehicle>
    <vehicle id="11068206.0" depart="0.00">
        <route edges="143494302#1 -143494302#2 -3731771#1 -3731771#0 3731773#3 3731773#5 3731773#8 16771605#3 192559607#6 8129999#0 125835597#0 578662065 199586552#0 125835626#0 -53203693#1 572470968#0 1060267622#0 572469205#0 -660557045 1053665848 -630732292#3 -126304975#1 -333580518#2"/>
    </vehicle>
    <vehicle id="11167693.0" depart="0.00">
        <route edges="-3731776#6 -3731776#2 -3731776#1 -3731776#0 3731761#2 3731761#3 3731761#4 3731761#5 3731761#7 3731761#8 3731761#9 192559609#1 -8130000#0 8129999#0 125835597#0 578662065 199586552#0 125835626#0 -53203693#1 572470968#0 1060267622#0 572469205#0 -660557045 1053665848 -630732292#3 243915691#0 608754690 502317796#0 502317795"/>
    </vehicle>
    <vehicle id="11193812.0" depart="0.00">
        <route edges="3731773#1 3731773#2 3731773#3 3731773#5 3731773#8 16771605#3 3752543 120320205#2 -578662079 -123929644#2 -123929644#0 -813979468 -521257400#1 429706864 813979472 1125278613 178712524#1 178712112 -189453004#3 189453001"/>
    </vehicle>
    <vehicle id="11256253.0" depart="0.00">
        <route edges="97209987#1 813979470 249333186 249333185 8131121 8131121-AddedOffRampEdge 225605630 23837544-AddedOnRampEdge 23837544 438252639 125835624#0 507005804 125835610 3879559 292472299 139807121#0 292472307#0 292472313 192559620 292472302#0 139807118 139807119 292472289 40404013 292472283 4884481#0 949703710-AddedOnRampEdge 949703710 345592223"/>
    </vehicle>
    <vehicle id="11258025.0" depart="0.00">
        <route edges="97209987#1 813979470 249333186 249333185 8131121 8131121-AddedOffRampEdge 1081668996 3358667 -192559651#1 -608715644#2 126304940#0 126304941#0 126304941#6 295116788#0 27818682#0 27818682#1 27818682#4 27818682#5 27818682#6"/>
    </vehicle>
    <vehicle id="11279991.0" depart="0.00">
        <route edges="147850136 192559650#1 23837546#0 3680402 192559654#0 225605633-AddedOnRampEdge 225605633 78568454 270181177#0 813970228 813970226 13067134 249333187 249333188 3752557 78873921"/>
    </vehicle>
    <vehicle id="11295351.0" depart="0.00">
        <route edges="-154927153#2 154927153#2 27818682#1 27818682#4 27818682#5 -27818679"/>
    </vehicle>
    <vehicle id="11511743.0" depart="0.00">
        <route edges="326736767 326736763 326736764 326736759 -326736759 -326736764 -326736763 -326736767 -326736761 -326736760#2 -326736762 -608715547 -326736773#1 -345596705#1 -225605573 -225605572 -952471674#1 -23837546#1 -303190516 3358670"/>
    </vehicle>
    <vehicle id="11542519.0" depart="0.00">
        <route edges="192108576#3 136819243 -136819243 147850151#0 292472297 292472294 14276598#0 146171935-AddedOnRampEdge 146171935 125835580#0 -125835580#1"/>
    </vehicle>
    <vehicle id="11597521.0" depart="0.00">
        <route edges="97209986 125835623#0 146171935-AddedOnRampEdge 146171935 125835580#0 125835582#1 27818682#0 27818682#1"/>
    </vehicle>
    <vehicle id="11679490.0" depart="0.00">
        <route edges="326736783 326736786#0 -326736759 -326736764 -326736763 -326736767 -326736761 4858796 326736787-AddedOnRampEdge 326736787 225605578 3992554 474466465 136819238#0 949703711"/>
    </vehicle>
    <vehicle id="11684958.0" depart="0.00">
        <route edges="292472294 14276598#0 146171935-AddedOnRampEdge 146171935 429706863 146171867-AddedOnRampEdge 146171867 146171867-AddedOffRampEdge 23837543 3680457 225605633-AddedOnRampEdge 225605633 78568454 8131119"/>
    </vehicle>
    <vehicle id="11839367.0" depart="0.00">
        <route edges="146171871 3877105 8131125 3993387 109267417 3993388 1085888987 254800932#0 23691158 254800931 62268125 97209983#0 263138306 61540068 254801390 61540098 8131040 1085888986 85048201 3877104 125835586 146171867-AddedOnRampEdge 146171867 146171867-AddedOffRampEdge 23837543 3680457 225605633-AddedOnRampEdge 225605633 78568454 270181177#0 813970228 813970226 13067134 249333187 249333188 3752557 112917239#0 -112917238#4 333580518#0 326736797 807751753 807751754 -807751754"/>
    </vehicle>
    <vehicle id="1184225.0" depart="0.00">
        <route edges="-31092163#1 31092163#1 31092163#2 31092162#0 87304285#0 -31058502#0 -10657957#14 -10657957#8 -25155107#1 12195285 -101619135#12 -101619135#8 -101619135#7 -101619135#6 -101619135#3 -101619135#2 101619136#0 1036486946 16377030#0 1036486947#0 499072205#0 -20681390#1 -17023727 -121562246 -586268886#0 -608715536#2 -608715536#0 8130906#0 876185327 10296368#2 893696211#1 876185324 24905257#0 3677823#0 3677823#2 3677823#4 3677823#5 655251292 131571763 86164005#0 86164005#1 3328914#0 -174886292 -655251291 -120125393#3 -120125393#2 301552210#0 301552211#0 85799069#0 608715635 956394198#0 301552215 578662083 120086151#0 564556445 23119517#0 -192659001#12 -192659001#7 -192659001#6 -192659001#5 3996949#0 192659021#8 192659021#9 -192659021#15"/>
    </vehicle>
    <vehicle id="11947947.0" depart="0.00">
        <route edges="-807751754 807751755 -333580518#2 608754690 502317796#0 502317795 15945426#0 78568660 78627821 41403544#0 813970227 78568455#0 28982660 813979473 192559626 192559627#0 429706864 813979472 79289746 813979470 249333186 249333185 8131121 8131121-AddedOffRampEdge 1081668996 3358667 -192559651#1 3358670 23837546#0 3680402 192559654#0 225605633-AddedOnRampEdge 225605633 78568454 270181177#0"/>
    </vehicle>
    <vehicle id="11989955.0" depart="0.00">
        <route edges="27818682#5 -27818682#5 -27818682#4 -27818682#3 -27818682#0 295225456#2 -147850135#6 -147850135#4 -147850135#0 192108576#0 292472297 292472294 148252690#0"/>
    </vehicle>
    <vehicle id="12010166.0" depart="0.00">
        <route edges="3871579 192559650#0 192559650#1 -303190516 -608715644#2 126304940#0 126304941#0 126304941#6 295116788#0 27818682#0 -154927153#2 -1108587335"/>
    </vehicle>
    <vehicle id="12014966.0" depart="0.00">
        <route edges="4858796 326736787-AddedOnRampEdge 326736787 225605578 3992554 474466465 136819238#0 949703711 139807120#0 192559621 292472310#0 292472297 292472294 14276598#0 146171935-AddedOnRampEdge 146171935 125835580#0 125835582#1 27818682#0 27818682#1 -27818682#3"/>
    </vehicle>
    <vehicle id="1206856.0" depart="0.00">
        <route edges="-327293825#1 -327293825#0 -126304965#4 -31058499#1 -31058499#0 126304956#3 126304956#6 -10657957#8 -25155107#1 12195285 -101619135#12 -101619135#8 -101619135#7 -101619135#6 -101619135#3 -101619135#2 101619136#0 1036486946 16377030#0 1036486947#0 499072205#0 -20681390#1 -17023727 -121562246 -9864377#3 916922550#3 83869544 -858200640#1 -48540797 -8074632#4 -85798761 -23121879 3701209 301615094#0 301615094#2 301615094#4 301615094#7 -11615002#1 141114449 -141114449"/>
    </vehicle>
    <vehicle id="12081548.0" depart="0.00">
        <route edges="3752557 78873921 78568660 78627821 41403544#0 813970227 78568455#0 28982660 813979473 192559626 192559627#0 429706864 813979472 79289746 813979470 249333186 249333185 8131121 8131121-AddedOffRampEdge 1081668996 3358667 -192559651#1 -608715644#2 126304940#0 126304941#0 126304941#6 295116788#0 27818682#0 27818682#1 27818682#4 -27818682#4"/>
    </vehicle>
    <vehicle id="12118186.0" depart="0.00">
        <route edges="146171935-AddedOnRampEdge 146171935 429706863 146171867-AddedOnRampEdge 146171867 146171867-AddedOffRampEdge 23837543 3680457 225605633-AddedOnRampEdge 225605633 78568454 8131119 28982660 813979473 192559626 192559627#0 429706864 813979472 79289746 813979470"/>
    </vehicle>
    <vehicle id="12125894.0" depart="0.00">
        <route edges="28982660 813979473 192559626 192559627#0 429706864 813979472 1125278613 178712524#1 178712112 -189453004#3 189453001 1088722135#0 1088722135#1 3752557 112917239#0 -112917238#4 333580518#0 326736797"/>
    </vehicle>
    <vehicle id="12185102.0" depart="0.00">
        <route edges="326736770#0 326736760#0 326736795 326736787-AddedOnRampEdge 326736787 225605578 3992554 474466465 345592230#0 292472289"/>
    </vehicle>
    <vehicle id="12187692.0" depart="0.00">
        <route edges="192559650#1 -303190516 192559651#0 8127689 23837544-AddedOnRampEdge 23837544 438252639 125835624#0 507005804 125835610 3879559 292472299 139807121#0 292472307#0 292472313"/>
    </vehicle>
    <vehicle id="12348998.0" depart="0.00">
        <route edges="474466465 136819238#0 949703711 139807120#0 192559621 292472310#0 292472297 292472294 14276598#0 146171935-AddedOnRampEdge 146171935 429706863 146171867-AddedOnRampEdge 146171867 146171867-AddedOffRampEdge 3871579 192559650#0 192559650#1 23837546#0 952471674#0"/>
    </vehicle>
    <vehicle id="12351600.0" depart="0.00">
        <route edges="192108576#3 136819243 430047989#2 430047989#3 430047989#4 430047989#6 139807118 139807119 292472289 40404013"/>
    </vehicle>
    <vehicle id="12394292.0" depart="0.00">
        <route edges="78873921 78568660 78627821 41403544#0 813970227 78568455#0 28982660 813979473 192559626 192559627#0 429706864 813979472 79289746 813979470 249333186 249333185 8131121 8131121-AddedOffRampEdge 1081668996 3358667 -192559651#1 3358670 23837546#0 952471674#0 225605572 345596706 345596705#0 326736773#0 326736773#2 326736770#0 326736760#0 326736795 326736787-AddedOnRampEdge 326736787 225605578 3992554 474466465 345592230#0"/>
    </vehicle>
    <vehicle id="12509924.0" depart="0.00">
        <route edges="292472283 4858224 292472285 79501549 292472305 949703711 139807120#0 192559621 292472310#0 292472297 292472294 14276598#0 146171935-AddedOnRampEdge 146171935 429706863 146171867-AddedOnRampEdge 146171867 146171867-AddedOffRampEdge 23837543 3680457 225605633-AddedOnRampEdge 225605633 78568454 270181177#0 813970228 813970226 13067134 249333187 249333188 3752557 112917239#0 -112917238#4 333580518#0 326736797"/>
    </vehicle>
    <vehicle id="12567927.0" depart="0.00">
        <route edges="810580965 326736773#2 326736770#0 326736760#0 326736795 326736787-AddedOnRampEdge 326736787 225605578 3992554 474466465 345592230#0 292472289 40404013 292472283 4884481#0 949703710-AddedOnRampEdge 949703710"/>
    </vehicle>
    <vehicle id="12629626.0" depart="0.00">
        <route edges="192108576#0 292472297 292472294 14276598#0 146171935-AddedOnRampEdge 146171935 429706863 146171867-AddedOnRampEdge 146171867 146171867-AddedOffRampEdge 3871579 192559650#0 192559650#1 -303190516 192559651#0 8127689 23837544-AddedOnRampEdge 23837544"/>
    </vehicle>
    <vehicle id="12686091.0" depart="0.00">
        <route edges="502317796#0 502317795 15945426#0 78568660 78627821 41403544#0 813970227 78568455#0 28982660 813979473 192559626 192559627#0 429706864 813979472 1125278613"/>
    </vehicle>
    <vehicle id="12740627.0" depart="0.00">
        <route edges="78568660 78627821 41403544#0 813970227 78568455#0 28982660 813979473 192559626 192559627#0 429706864 813979472 79289746 813979470 249333186 249333185 8131121 8131121-AddedOffRampEdge 225605630 23837544-AddedOnRampEdge 23837544 438252639 125835624#0 507005804 125835610 3879559 292472299 139807121#0"/>
    </vehicle>
    <vehicle id="127991.0" depart="0.00">
        <route edges="31058274#1 -31058274#1 31058514#0 31092162#0 87304285#0 -31058502#0 -10657957#14 -10657957#8 -25155107#1 12195285 -101619135#12 -101619135#8 -101619135#7 -101619135#6 -101619135#3 -101619135#2 101619136#0 1036486946 16377030#0 1036486947#0 499072205#0 -20681390#1 -17023727 -121562246 -586268886#0 -608715536#2 -608715536#0 8130906#0 876185327 10296368#2 893696211#1 876185324 24905257#0 3677823#0 3677823#2 3677823#4 3677823#5 655251292 131571763 86164005#0 86164005#1 3677330#0 23237287#0 3677335#0 461159367 461159362#0 461159346 325166039#2 461159351 461159369#0 461159369#3 461159369#5 8127969#0 3390189"/>
    </vehicle>
    <vehicle id="12845459.0" depart="0.00">
        <route edges="-66765019 -192659017#3 -192659017#1 -24355240 99416791 102139637 -100902220 -89022063 -192659020#2 -93647810#3 -93647810#2 -93647810#0 -1159503591 71534999 192659019#0 93647798#0 340093677 3998132 340265940 19787340 340265950 340265921 340265943 340265954 326736774 326736775 225605578 3992554 474466465 136819238#0 949703711 139807120#0 192559621 292472310#0 147850151#4 136819241#0 -136819241#1"/>
    </vehicle>
    <vehicle id="12849974.0" depart="0.00">
        <route edges="-896644802 9810393#1 9810393#2 9810393#6 9810393#7 9810393#8 1187307090#0 -89022063 -192659020#2 -93647810#3 -93647810#2 -93647810#0 -1159503591 71534999 192659019#0 93647798#0 340093677 3998132 340265940 19787340 340265950 340265921 340265943 340265954 326736774 326736775 225605578 3992554 474466465 345592230#0 9932745#0"/>
    </vehicle>
    <vehicle id="12887763.0" depart="0.00">
        <route edges="-43548666 -9262295#1 43547534#1 43547535 796199877 43547536#1 -192659017#1 -24355240 99416791 102139637 -100902220 -89022063 -192659020#2 -93647810#3 -93647810#2 -93647810#0 -1159503591 71534999 192659019#0 93647798#0 340093677 3998132 340265940 19787340 340265950 340265921 340265943 340265954 326736774 3992556 326736784 326736794 -326736760#2 -326736762 -608715547"/>
    </vehicle>
    <vehicle id="12889856.0" depart="0.00">
        <route edges="-43548666 -9262295#1 43547534#1 43547535 796199877 43547536#1 -192659017#1 -24355240 99416791 102139637 -100902220 -89022063 -192659020#2 -93647810#3 -93647810#2 -93647810#0 -1159503591 71534999 192659019#0 93647798#0 340093677 3998132 340265940 19787340 340265950 340265921 340265943 340265954 326736774 3992556 326736784 326736794 -326736760#2 -326736762 -608715547 326736773#2 326736770#0 326736760#0"/>
    </vehicle>
    <vehicle id="12996861.0" depart="0.00">
        <route edges="43547521#0 43547521#1 -9810445#0 9810393#2 9810393#6 9810393#7 9810393#8 1187307090#0 -89022063 -192659020#2 -93647810#3 -93647810#2 -93647810#0 -1159503591 71534999 192659019#0 93647798#0 340093677 3998132 340265940 19787340 340265950 340265921 340265943 340265954 326736774 3992556 326736784 326736794 -326736760#2 -326736762 -608715547 -326736773#1 -345596705#1 -225605573 -225605572 -952471674#1 -23837546#1 -303190516 -608715644#2 126304940#0 126304941#0 126304941#6 295116788#0 27818682#0 -154927153#2 -1108587335 1108587335"/>
    </vehicle>
    <vehicle id="13015219.0" depart="0.00">
        <route edges="-23911551#2 -23911551#0 -896644802 9810393#1 9810393#2 9810393#6 9810393#7 9810393#8 1187307090#0 -89022063 -192659020#2 -93647810#3 -93647810#2 -93647810#0 -1159503591 71534999 192659019#0 93647798#0 340093677 3998132 340265940 19787340 340265950 340265921 340265943 340265954 326736774 3992556 326736784 326736794 -326736760#2 -326736762 -608715547 -326736773#1 -345596705#1 -225605573 -225605572 -952471674#1 -23837546#1 -303190516 -608715644#2 126304940#0 126304941#0 126304941#6 295116788#0 27818682#0 27818682#1 27818682#4 27818682#5 -27818679 192559605#2"/>
    </vehicle>
    <vehicle id="13046317.0" depart="0.00">
        <route edges="9262295#8 -9262295#8 -9262295#7 -43547533 43547532 9262319#2 9810393#7 9810393#8 1187307090#0 -89022063 -192659020#2 -93647810#3 -93647810#2 -93647810#0 -1159503591 71534999 192659019#0 93647798#0 340093677 3998132 340265940 19787340 340265950 340265921 340265943 340265954 326736774 3992556 326736784 326736794 -326736760#2 -326736762 -608715547 -326736773#1 -345596705#1 -225605573 -225605572 8128795#0 192559654#0 225605633-AddedOnRampEdge 225605633 78568454 270181177#0"/>
    </vehicle>
    <vehicle id="13095194.0" depart="0.00">
        <route edges="832174482 192659016#0 -23120698 -23124516#2 -23124516#1 -192659005#2 -192659005#1 -9262165 -192659020#2 -93647810#3 -93647810#2 -93647810#0 -1159503591 71534999 192659019#0 93647798#0 340093677 3998132 340265940 19787340 340265950 340265921 340265943 340265954 326736774 3992556 326736784 326736794 -326736760#2 -326736762 -608715547 -326736773#1 -345596705#1 -225605573 -225605572 225605572 345596706"/>
    </vehicle>
    <vehicle id="13113719.0" depart="0.00">
        <route edges="-9810433#2 -9810422#1 -9810445#2 -9810445#0 9810393#2 9810393#6 9810393#7 9810393#8 1187307090#0 -89022063 -192659020#2 -93647810#3 -93647810#2 -93647810#0 -1159503591 71534999 192659019#0 93647798#0 340093677 3998132 340265940 19787340 340265950 340265921 340265943 340265954 326736774 326736775 225605578 3992554 474466465 136819238#0 949703711 139807120#0 192559621 292472310#0 147850151#4 136819241#0 -136819241#1"/>
    </vehicle>
    <vehicle id="13167342.0" depart="0.00">
        <route edges="-43547521#1 43547521#1 -9810445#0 9810393#2 9810393#6 9810393#7 9810393#8 1187307090#0 -89022063 -192659020#2 -93647810#3 -93647810#2 -93647810#0 -1159503591 71534999 192659019#0 93647813 -192559631#2 -192559631#0 -608916224 -430072706 -608916191#0 -8130000#1 -8130000#0 8129999#0 -130861473#2 -609991297 -578662079 -123929644#2 -123929644#0 -813979468 -521257400#1 429706864 813979472 1125278613 178712524#1 178712112 -189453004#3 189453001"/>
    </vehicle>
    <vehicle id="13248048.0" depart="0.00">
        <route edges="-192659001#7 192659001#7 192659001#8 -301552216#3 -564556445 -120086151#1 -578662085 -301552215 956394197#0 -301552213#2 -85799069#1 -301552211#1 -301552210#2 174886300 120125393#3 578662068 174886292 174886289 3328222#0 3677330#0 23237287#0 3677332 1055164587 55067673 3677944#0 3677944#1 174338458#1 521193380 429706864 813979472 79289746 813979470 249333186 249333185 8131121 8131121-AddedOffRampEdge 225605630 23837544-AddedOnRampEdge 23837544 438252639 125835624#0"/>
    </vehicle>
    <vehicle id="13313550.0" depart="0.00">
        <route edges="-315688868 192659001#8 -301552216#3 -564556445 -120086151#1 -578662085 -301552215 956394197#0 -301552213#2 -85799069#1 -301552211#1 -301552210#2 174886300 120125393#3 578662068 174886292 174886289 3328222#0 3677330#0 23237287#0 3677332 1055164587 55067673 3677944#0 3677944#1 174338458#1 521193380 429706864 813979472 79289746 813979470 249333186 249333185 8131121 8131121-AddedOffRampEdge 1081668996 3358667 -192559651#1 3358670 23837546#0 952471674#0 225605572 345596706 345596705#0 326736773#0 326736773#2 326736770#0 326736760#0 -326736760#2 -326736762"/>
    </vehicle>
    <vehicle id="13368588.0" depart="0.00">