<?xml version="1.0" encoding="UTF-8"?>

<!-- generated on 2024-01-27 15:38:58 by Eclipse SUMO duarouter Version 1.19.0
<configuration xmlns:xsi="http://www.w3.org/2001/XMLSchema-instance" xsi:noNamespaceSchemaLocation="http://sumo.dlr.de/xsd/duarouterConfiguration.xsd">

    <input>
        <net-file value="osm_andre.net.xml"/>
        <route-files value="flussi_segmentati.xml"/>
    </input>

    <output>
        <output-file value="traffic_demand_proj11_segmentati.rou.xml"/>
    </output>

    <processing>
        <repair value="true"/>
        <repair.from value="true"/>
        <repair.to value="true"/>
        <routing-algorithm value="astar"/>
    </processing>

</configuration>
-->

<routes xmlns:xsi="http://www.w3.org/2001/XMLSchema-instance" xsi:noNamespaceSchemaLocation="http://sumo.dlr.de/xsd/routes_file.xsd">
    <vehicle id="1012610.0" depart="0.00">
        <route edges="-225605572 -952471674#1 -23837546#1 -303190516 192559651#0 8127689 23837544-AddedOnRampEdge 23837544 146171871 3877105 8131125 3993387 109267417 3993388 1085888987 254800932#0 23691158 254800931 62268125 263138305#0 44932918#0 12714939 320591282#0 12715116#0 23707244 23707243#0 23707243#2 940912606#0 608715553#0 608715553#4 608715553#5 24905455#1 24905455#5 126304955#0 126304955#3 116692564#1 87304289#0 116692562#0 -126304965#4 -126304965#3 -31058502#2 -31058502#0 10672178#0 112917228 10672177#0 -23707215#5 -23707215#2 -23436187#0 10672174#0 10672174#1"/>
    </vehicle>
    <vehicle id="1013550.0" depart="0.00">
        <route edges="-225605572 -952471674#1 -23837546#1 -303190516 192559651#0 8127689 23837544-AddedOnRampEdge 23837544 146171871 3877105 8131125 3993387 109267417 3993388 1085888987 254800932#0 23691158 254800931 62268125 263138305#0 44932918#0 12714939 320591282#0 12715116#0 23707244 23707243#0 23707243#2 940912606#0 608715553#0 608715553#4 608715553#5 24905455#1 24905455#5 126304955#0 126304955#3 82459657#0 1201659269 23889534#0 23889534#1 23889534#4 23889534#5 688347309 688347311#3 -11094212#1 -14360292#6 -14360292#5 23707022#0 276463759"/>
    </vehicle>
    <vehicle id="1019075.0" depart="0.00">
        <route edges="125133233#0 125133233#2 -147850135#0 192108576#0 292472297 292472294 148252690#0 148252706 125835610 9812591#0 109267417 3993388 1085888987 254800932#0 23691158 254800931 62268125 263138305#0 44932918#0 12714939 320591282#0 12715116#0 23707244 23707243#0 23707243#2 940912606#0 608715553#0 608715553#4 608715553#5 24905455#1 24905455#5 126304955#0 126304955#3 116692564#1 87304289#0 116692562#0 -126304965#4 -126304965#3 -31058502#2 -31058502#0 10672178#0 112917228 10672177#0 10672177#2 608754700 23707216 112917234 -69162793#2"/>
    </vehicle>
    <vehicle id="1045339.0" depart="0.00">
        <route edges="345596705#0 326736773#0 -326736773#1 -345596705#1 -225605573 -225605572 -952471674#1 -23837546#1 -303190516 192559651#0 8127689 23837544-AddedOnRampEdge 23837544 146171871 3877105 8131125 3993387 109267417 3993388 1085888987 254800932#0 23691158 254800931 62268125 263138305#0 44932918#0 12714939 320591282#0 12715116#0 23707244 23707243#0 23707243#2 940912606#0 608715553#0 608715553#4 608715553#5 24905455#1 24905455#5 126304955#0 126304955#3 116692564#1 87304289#0 116692562#0 -126304965#4 -126304965#3 -31058502#2 -31058502#0 10672178#0 112917228 23707218#0 -23707218#7 -1196057748 23436187#4 35731426#0 35731426#1 11256343#3 -10649853"/>
    </vehicle>
    <vehicle id="1060965.0" depart="0.00">
        <route edges="-125133232 125133233#2 -147850135#0 192108576#0 292472297 292472294 148252690#0 148252706 125835610 9812591#0 109267417 3993388 1085888987 254800932#0 23691158 254800931 62268125 263138305#0 44932918#0 12714939 320591282#0 12715116#0 23707244 23707243#0 23707243#2 940912606#0 608715553#0 608715553#4 608715553#5 24905455#1 24905455#5 126304955#0 126304955#3 82459657#0 1201659269 23889534#0 23889534#1 23889534#4 23889534#5 688347309 688347311#3 -11094212#1 -14360292#6 -14360292#5 23707022#0 276463759 124754547#0 124754547#1"/>
    </vehicle>
    <vehicle id="1061819.0" depart="0.00">
        <route edges="-125133232 125133233#2 -147850135#0 192108576#0 292472297 292472294 148252690#0 148252706 125835610 9812591#0 109267417 3993388 1085888987 254800932#0 23691158 254800931 62268125 263138305#0 44932918#0 12714939 320591282#0 12715116#0 23707244 23707243#0 23707243#2 940912606#0 608715553#0 608715553#4 608715553#5 24905455#1 24905455#5 126304955#0 126304955#3 82459657#0 1201659269 23889534#0 23889534#1 23889534#4 23889534#5 688347309 688347311#3 -11094212#1 -14360292#6 -14360292#5 -14360292#4 14359733 -23707018#1 -14359730#4 -14359730#2 -14359730#1 608754692#5"/>
    </vehicle>
    <vehicle id="1073429.0" depart="0.00">
        <route edges="-125835582#0 125835582#0 -125835580#1 429706863 146171867-AddedOnRampEdge 146171867 146171867-AddedOffRampEdge 3871579 192559650#0 192559650#1 -303190516 192559651#0 8127689 23837544-AddedOnRampEdge 23837544 146171871 3877105 8131125 3993387 109267417 3993388 1085888987 254800932#0 23691158 254800931 62268125 263138305#0 44932918#0 12714939 320591282#0 12715116#0 23707244 23707243#0 23707243#2 940912606#0 608715553#0 608715553#4 608715553#5 24905455#1 24905455#5 126304955#0 126304955#3 116692564#1 87304289#0 116692562#0 -126304965#4 -126304965#3 -31058502#2 -31058502#0 10672178#0 112917228 23707218#0 -23707218#7 -1196057748 -23436187#3 -23436187#2"/>
    </vehicle>
    <vehicle id="1081544.0" depart="0.00">
        <route edges="23837546#0 -23837546#1 -303190516 192559651#0 8127689 23837544-AddedOnRampEdge 23837544 146171871 3877105 8131125 3993387 109267417 3993388 1085888987 254800932#0 23691158 254800931 62268125 263138305#0 44932918#0 12714939 320591282#0 12715116#0 23707244 23707243#0 23707243#2 940912606#0 608715553#0 608715553#4 608715553#5 24905455#1 24905455#5 126304955#0 126304955#3 116692564#1 87304289#0 116692562#0 -126304965#4 -126304965#3 -31058502#2 -31058502#0 10672178#0 112917228 10672177#0 -23707215#5 -23707215#2 -23436187#0 10672174#0 10672174#1 10672174#9"/>
    </vehicle>
    <vehicle id="1083585.0" depart="0.00">
        <route edges="1088722135#0 1088722135#1 3752557 78873921 78568660 78627821 41403544#0 813970227 78568455#0 28982660 813979473 192559626 192559627#0 429706864 813979472 79289746 813979470 249333186 249333185 8131121 8131121-AddedOffRampEdge 225605630 23837544-AddedOnRampEdge 23837544 146171871 3877105 8131125 3993387 109267417 3993388 1085888987 254800932#0 23691158 254800931 62268125 263138305#0 44932918#0 12714939 320591282#0 12715116#0 23707244 23707243#0 23707243#2 940912606#0 608715553#0 608715553#4 608715553#5 24905455#1 24905455#5 126304955#0 126304955#3 116692564#1 87304289#0 116692562#0 -126304965#4 -126304965#3 -31058502#2 -31058502#0 10672178#0 112917228 10672177#0 -23707215#5 -23707215#2 -23436187#0 10672174#0 10672174#1 -34145810#2"/>
    </vehicle>
    <vehicle id="1106893.0" depart="0.00">
        <route edges="-126304941#8 126304941#6 126304941#9 125835624#0 507005804 125835610 9812591#0 109267417 3993388 1085888987 254800932#0 23691158 254800931 62268125 263138305#0 44932918#0 12714939 320591282#0 12715116#0 23707244 23707243#0 23707243#2 940912606#0 608715553#0 608715553#4 608715553#5 24905455#1 24905455#5 126304955#0 126304955#3 116692564#1 87304289#0 116692562#0 -126304965#4 -126304965#3 -31058502#2 -31058502#0 10672178#0 112917228 23707218#0 -23707218#7 -1196057748 23436187#4 35731426#0 35731426#1 11256343#3 -800673084#1 -192706272#3 -11256172#1 -11256172#0"/>
    </vehicle>
    <vehicle id="1144315.0" depart="0.00">
        <route edges="-136819241#1 192108576#0 292472297 292472294 148252690#0 148252706 125835610 9812591#0 109267417 3993388 1085888987 254800932#0 23691158 254800931 62268125 263138305#0 44932918#0 12714939 320591282#0 12715116#0 23707244 23707243#0 23707243#2 940912606#0 608715553#0 608715553#4 608715553#5 24905455#1 24905455#5 126304955#0 126304955#3 116692564#1 87304289#0 116692562#0 -126304965#4 -126304965#3 -31058502#2 -31058502#0 10672178#0 112917228 23707218#0 -23707218#7 -1196057748 23436187#4 35731426#0 35731426#1 11256343#3 -800673084#1 -192706272#3 -11256172#1 -11256172#0"/>
    </vehicle>
    <vehicle id="1175981.0" depart="0.00">
        <route edges="79289746 813979470 249333186 249333185 8131121 8131121-AddedOffRampEdge 225605630 23837544-AddedOnRampEdge 23837544 146171871 3877105 8131125 3993387 109267417 3993388 1085888987 254800932#0 23691158 254800931 62268125 263138305#0 44932918#0 12714939 320591282#0 12715116#0 23707244 23707243#0 23707243#2 940912606#0 608715553#0 608715553#4 608715553#5 24905455#1 24905455#5 126304955#0 126304955#3 82459657#0 1201659269 23889534#0 23889534#1 23889534#4 23889534#5 688347309 688347311#3 -11094212#1 -14360292#6 -14360292#5 -14360292#4 14359733 -23707018#1 -14359730#4 -14359730#2"/>
    </vehicle>
    <vehicle id="1200824.0" depart="0.00">
        <route edges="249333181#0 249333181#3 -189453001 189453002 -254882029#4 97209987#0 97209987#1 813979470 249333186 249333185 8131121 8131121-AddedOffRampEdge 225605630 23837544-AddedOnRampEdge 23837544 146171871 3877105 8131125 3993387 109267417 3993388 1085888987 254800932#0 23691158 254800931 62268125 263138305#0 44932918#0 12714939 320591282#0 12715116#0 23707244 23707243#0 23707243#2 940912606#0 608715553#0 608715553#4 608715553#5 24905455#1 24905455#5 126304955#0 126304955#3 116692564#1 87304289#0 116692562#0 -126304965#4 -126304965#3 -31058502#2 -31058502#0 10672178#0 112917228 10672177#0 -23707215#5 -23707215#2 -23436187#0 10672174#0 10672174#1 10672174#9"/>
    </vehicle>
    <vehicle id="1204470.0" depart="0.00">
        <route edges="23837546#0 -23837546#1 -303190516 192559651#0 8127689 23837544-AddedOnRampEdge 23837544 146171871 3877105 8131125 3993387 109267417 3993388 1085888987 254800932#0 23691158 254800931 62268125 263138305#0 44932918#0 12714939 320591282#0 12715116#0 23707244 23707243#0 23707243#2 940912606#0 608715553#0 608715553#4 608715553#5 24905455#1 24905455#5 126304955#0 126304955#3 116692564#1 87304289#0 116692562#0 -126304965#4 -126304965#3 -31058502#2 -31058502#0 10672178#0 112917228 10672177#0 -23707215#5 -23707215#2 -23436187#0 10672174#0 10672174#1 69162801#0 69162804#2"/>
    </vehicle>
    <vehicle id="1213079.0" depart="0.00">
        <route edges="125835582#0 -125835580#1 429706863 146171867-AddedOnRampEdge 146171867 146171867-AddedOffRampEdge 3871579 192559650#0 192559650#1 -303190516 192559651#0 8127689 23837544-AddedOnRampEdge 23837544 146171871 3877105 8131125 3993387 109267417 3993388 1085888987 254800932#0 23691158 254800931 62268125 263138305#0 44932918#0 12714939 320591282#0 12715116#0 23707244 23707243#0 23707243#2 940912606#0 608715553#0 608715553#4 608715553#5 24905455#1 24905455#5 126304955#0 126304955#3 116692564#1 87304289#0 116692562#0 -126304965#4 -126304965#3 -31058502#2 -31058502#0 10672178#0 112917228 23707218#0 -23707218#7 -1196057748 -23436187#3 -23436187#2"/>
    </vehicle>
    <vehicle id="122423.0" depart="0.00">
        <route edges="-189453001 189453002 79289753#0 189453003#1 189453003#2 189453003#3 123929657#0 123929657#2 3677945#0 8128771 3677331 -1055164586 55067675 3677329 90168774#1 90168774#2 3328914#0 -174886292 -655251291 -120125393#3 -120125393#2 301552210#0 301552211#0 85799069#0 608715635 956394198#0 301552215 578662083 120086151#0 564556445 23119517#0 -192659001#12 -192659001#7 3701206#0 3701206#15 3701206#37 -301615094#18 -301615094#17 -11615002#1 141114449 -141114449"/>
    </vehicle>
    <vehicle id="1234611.0" depart="0.00">
        <route edges="-147850161 -147850141 450580119 147850161 324280977#0 -326736765#1 -326736769#1 -225605571 -326736759 -326736764 -326736763 -326736767 -326736761 4858796 326736787-AddedOnRampEdge 326736787 225605578 3992554 474466465 136819238#0 949703711 139807120#0 192559621 292472310#0 292472297 292472294 148252690#0 148252706 125835610 9812591#0 109267417 3993388 1085888987 254800932#0 23691158 254800931 62268125 263138305#0 44932918#0 12714939 320591282#0 12715116#0 23707244 23707243#0 23707243#2 940912606#0 608715553#0 608715553#4 608715553#5 24905455#1 24905455#5 126304955#0 126304955#3 82459657#0 1201659269 23889534#0 23889534#1 23889534#4 23889534#5 688347309 688347311#3 -11094212#1 -14360292#6 -14360292#5 23707022#0"/>
    </vehicle>
    <vehicle id="124194.0" depart="0.00">
        <route edges="139807121#0 292472307#0 292472297 292472294 14276598#0 146171935-AddedOnRampEdge 146171935 429706863 146171867-AddedOnRampEdge 146171867 146171867-AddedOffRampEdge 23837543 3680457 225605633-AddedOnRampEdge 225605633 78568454 8131119 28982660 813979473 192559626 192559627#0 3677945#0 8128771 3677331 -1055164586 55067675 3677329 90168774#1 90168774#2 3677822#0 608715575#0 608715575#1 120086001#0 120086001#1 120086001#2 120086001#3 120086001#4 120086001#6 120086001#8 120086001#9 199381117#0 199381115 -301636907 -23121878#1 -79299307#2 -79299308 -85798761 -23121879 3701209 301615094#0 -301615094#1"/>
    </vehicle>
    <vehicle id="1242448.0" depart="0.00">
        <route edges="-378037553 71826173#7 -86614478#1 77864410 1084093047 3373670 182158054#0 77864412#0 49051775 678915216 48284227 3328634#0 -265006337 -832174479#2 -832174479#0 -23119710 120086152 3358661 -120086151#1 -578662085 -301552215 956394197#0 -301552213#2 -85799069#1 -301552211#1 -301552210#2 174886300 120125393#3 578662068 174886292 174886289 3328222#0 3677822#0 608715575#0 608715575#1 120086001#0 120086001#1 120086001#2 120086001#3 120086001#4 120086001#6 120086001#8 120086001#9 3991775#0 199381120 24905254 24905255#0 24905256#0 24905256#2 857806575 857806576 8130905#0 4003928 3991777#0 608715536#1 608715538 586268886#3 17023727 672505868 -499072205#2 1036486943 1038991214 1036486948#0 101619135#0 101619135#3 101619135#4 101619135#7 101619135#8 101619135#10 112917227#0 35731415#0 35731415#6 35731415#7 35731426#0 35731426#1 -11256343#2 -11256343#0 608754692#0 -124754547#2 -124754547#1 23707021#0"/>
    </vehicle>
    <vehicle id="1249262.0" depart="0.00">
        <route edges="586727112 77864410 1084093047 3373670 182158054#0 77864412#0 49051775 678915216 48284227 3328634#0 -265006337 -832174479#2 -832174479#0 -23119710 120086152 3358661 -120086151#1 -578662085 -301552215 956394197#0 -301552213#2 -85799069#1 -301552211#1 -301552210#2 174886300 120125393#3 578662068 174886292 174886289 3328222#0 3677822#0 608715575#0 608715575#1 120086001#0 120086001#1 120086001#2 120086001#3 120086001#4 120086001#6 120086001#8 120086001#9 3991775#0 199381120 24905254 24905255#0 24905256#0 24905256#2 857806575 857806576 8130905#0 4003928 3991777#0 608715536#1 608715538 586268886#3 17023727 672505868 -499072205#2 1036486943 1038991214 1036486948#0 101619135#0 101619135#3 101619135#4 101619135#7 101619135#8 101619135#10 112917227#0 35731415#0 35731415#6 35731415#7 35731426#0 35731426#1 11256343#3 -800673084#1 -192706272#3 -11256172#1"/>
    </vehicle>
    <vehicle id="1252622.0" depart="0.00">
        <route edges="-86614478#1 77864410 1084093047 3373670 182158054#0 77864412#0 49051775 678915216 48284227 3328634#0 -265006337 -832174479#2 -832174479#0 -23119710 120086152 3358661 -120086151#1 -578662085 -301552215 956394197#0 -301552213#2 -85799069#1 -301552211#1 -301552210#2 174886300 120125393#3 578662068 174886292 174886289 3328222#0 3677822#0 608715575#0 608715575#1 120086001#0 120086001#1 120086001#2 120086001#3 120086001#4 120086001#6 120086001#8 120086001#9 3991775#0 199381120 24905254 24905255#0 24905256#0 24905256#2 857806575 857806576 8130905#0 4003928 3991777#0 608715536#1 608715538 586268886#3 17023727 672505868 -499072205#2 1036486943 1038991214 1036486948#0 101619135#0 101619135#3 101619135#4 101619135#7 101619135#8 101619135#10 112917227#0 35731415#0 35731415#6 35731415#7 35731426#0 35731426#1 11256343#3 -800673084#1 -192706272#3 -11256172#1"/>
    </vehicle>
    <vehicle id="1254324.0" depart="0.00">
        <route edges="-8128166 -3450551#4 -17773074#2 3358666#0 320989025#0 72856963 64487971#0 23098341#0 608715558 488932567#0 351276438#0 443972008#1 443972014#0 351276443#1 192659010 461159359 85044922#0 85044922#2 85044922#6 3677329 90168774#1 90168774#2 3677822#0 608715575#0 608715575#1 120086001#0 120086001#1 120086001#2 120086001#3 120086001#4 120086001#6 120086001#8 120086001#9 3991775#0 199381120 24905254 24905255#0 24905256#0 24905256#2 857806575 857806576 8130905#0 4003928 3991777#0 608715536#1 608715538 586268886#3 17023727 672505868 -499072205#2 1036486943 1038991214 1036486948#0 101619135#0 101619135#3 101619135#4 101619135#7 101619135#8 101619135#10 112917227#0 35731415#0 35731415#6 35731415#7 -23436187#4 -23436187#3 -23436187#2 -23436187#0 10672174#0 10672174#1 69162801#0 69162804#2"/>
    </vehicle>
    <vehicle id="1262490.0" depart="0.00">
        <route edges="71826173#0 71826173#7 -86614478#1 77864410 1084093047 3373670 182158054#0 77864412#0 49051775 678915216 48284227 3328634#0 -265006337 -832174479#2 -832174479#0 -23119710 120086152 3358661 -120086151#1 -578662085 -301552215 956394197#0 -301552213#2 -85799069#1 -301552211#1 -301552210#2 174886300 120125393#3 578662068 174886292 174886289 3328222#0 3677822#0 608715575#0 608715575#1 120086001#0 120086001#1 120086001#2 120086001#3 120086001#4 120086001#6 120086001#8 120086001#9 3991775#0 199381120 24905254 24905255#0 24905256#0 24905256#2 857806575 857806576 8130905#0 4003928 3991777#0 608715536#1 608715538 586268886#3 17023727 672505868 -499072205#2 1036486943 1038991214 1036486948#0 101619135#0 101619135#3 101619135#4 101619135#7 101619135#8 101619135#10 112917227#0 35731415#0 35731415#6 35731415#7 35731426#0 35731426#1 69217080 10649853"/>
    </vehicle>
    <vehicle id="1264931.0" depart="0.00">
        <route edges="451854805#2 -451854805#2 -451854805#1 126304917#4 126304920#0 134969643 968811661 254742534 73579618#0 23832344 351276443#1 192659010 461159359 85044922#0 85044922#2 85044922#6 3677329 90168774#1 90168774#2 3677822#0 608715575#0 608715575#1 120086001#0 120086001#1 120086001#2 120086001#3 120086001#4 120086001#6 120086001#8 120086001#9 3991775#0 199381120 24905254 24905255#0 24905256#0 24905256#2 857806575 857806576 8130905#0 4003928 3991777#0 608715536#1 608715538 586268886#3 17023727 672505868 -499072205#2 1036486943 1038991214 1036486948#0 101619135#0 101619135#3 101619135#4 101619135#7 101619135#8 101619135#10 112917227#0 35731415#0 35731415#6 35731415#7 35731426#0 35731426#1 -11256343#2 -11256343#0 608754692#0 608754692#3 608754692#5"/>
    </vehicle>
    <vehicle id="1265026.0" depart="0.00">
        <route edges="451854805#2 -451854805#2 -451854805#1 126304917#4 126304920#0 134969643 968811661 254742534 73579618#0 23832344 351276443#1 192659010 461159359 85044922#0 85044922#2 85044922#6 3677329 90168774#1 90168774#2 3677822#0 608715575#0 608715575#1 120086001#0 120086001#1 120086001#2 120086001#3 120086001#4 120086001#6 120086001#8 120086001#9 3991775#0 199381120 24905254 24905255#0 24905256#0 24905256#2 857806575 857806576 8130905#0 4003928 3991777#0 608715536#1 608715538 586268886#3 17023727 672505868 -499072205#2 1036486943 1038991214 1036486948#0 101619135#0 101619135#3 101619135#4 101619135#7 101619135#8 101619135#10 112917227#0 35731415#0 35731415#6 35731415#7 35731426#0 35731426#1 11256343#3 -800673084#1 192706272#4"/>
    </vehicle>
    <vehicle id="1265844.0" depart="0.00">
        <route edges="451854805#2 -451854805#2 -451854805#1 126304917#4 126304920#0 134969643 968811661 254742534 73579618#0 23832344"/>
    </vehicle>
    <vType id="bici" maxSpeed="20.00" emissionClass="Zero/default" accel="1" decel="2"/>
    <vehicle id="1265844sub.0" type="bici" depart="0.00">
        <route edges="23832344 351276443#1 192659010 85044935#0 3390192 461159345 88361317#0 3677944#0 3677944#1 174338458#1 521193380 429706864 813979472 79289746 813979470 249333186 249333185 8131121 8131121-AddedOffRampEdge 225605630 23837544-AddedOnRampEdge 23837544 146171871 3877105 8131125 3993387 109267417 3993388 1085888987 254800932#0 23691158 254800931 62268125 263138305#0 44932918#0 12714939 320591282#0 12715116#0 23707244 23707243#0 23707243#2 940912606#0 608715553#0 608715553#4 608715553#5 24905455#1 24905455#5 521257409#0 521257409#2 521257409#5 521257409#6 688336520#0 688336521 485293334#0 -940919066 -126304950#4 -126304950#0 -688347308#2"/>
    </vehicle>
    <vType id="pedone" maxSpeed="7.00" emissionClass="Zero/default" accel="1" decel="2"/>
    <vehicle id="1265844sub2.0" type="pedone" depart="0.00">
        <route edges="-688347308#2 688347309 688347311#3 -11094212#1 -14360292#6 -14360292#5 23707022#0 276463759"/>
    </vehicle>
    <vehicle id="1271354.0" depart="0.00">
        <route edges="-1183884875#1 23120474#0 64487699#0 64487971#0 23098341#0 608715558 488932567#0 351276438#0 443972008#1 443972014#0 351276443#1 192659010 461159359 85044922#0 85044922#2 85044922#6 3677329 90168774#1 90168774#2 3677822#0 608715575#0 608715575#1 120086001#0 120086001#1 120086001#2 120086001#3 120086001#4 120086001#6 120086001#8 120086001#9 3991775#0 199381120 24905254 24905255#0 24905256#0 24905256#2 857806575 857806576 8130905#0 4003928 3991777#0 608715536#1 608715538 586268886#3 17023727 672505868 -499072205#2 1036486943 1038991214 1036486948#0 101619135#0 101619135#3 101619135#4 101619135#7 101619135#8 101619135#10 112917227#0 35731415#0 35731415#6 35731415#7 35731426#0 35731426#1 11256343#3 -800673084#1 -192706272#3 -11256172#1"/>
    </vehicle>
    <vehicle id="1296621.0" depart="0.00">
        <route edges="77864401 229768920 -229768920 -77864414#1 182158054#0 77864412#0 49051775 678915216 48284227 3328634#0 -265006337 -832174479#2 -832174479#0 -23119710 120086152 3358661 -120086151#1 -578662085 -301552215 956394197#0 -301552213#2 -85799069#1 -301552211#1 -301552210#2 174886300 120125393#3 578662068 174886292 174886289 3328222#0 3677822#0 608715575#0 608715575#1 120086001#0 120086001#1 120086001#2 120086001#3 120086001#4 120086001#6 120086001#8 120086001#9 3991775#0 199381120 24905254 24905255#0 24905256#0 24905256#2 857806575 857806576 8130905#0 4003928 3991777#0 608715536#1 608715538 586268886#3 17023727 672505868 -499072205#2 1036486943 1038991214 1036486948#0 101619135#0 101619135#3 101619135#4 101619135#7 101619135#8 101619135#10 112917227#0 35731415#0 35731415#6 35731415#7 -23436187#4 -23436187#3 -23436187#2 -23436187#0 10672174#0 10672174#1 69162801#0 69162802"/>
    </vehicle>
    <vehicle id="1301490.0" depart="0.00">
        <route edges="-378037553 71826173#7 -86614478#1 77864410 1084093047 3373670 182158054#0 77864412#0 49051775 678915216 48284227 3328634#0 -265006337 -832174479#2 -832174479#0 -23119710 120086152 3358661 -120086151#1 -578662085 -301552215 956394197#0 -301552213#2 -85799069#1 -301552211#1 -301552210#2 174886300 120125393#3 578662068 174886292 174886289 3328222#0 3677822#0 608715575#0 608715575#1 120086001#0 120086001#1 120086001#2 120086001#3 120086001#4 120086001#6 120086001#8 120086001#9 3991775#0 199381120 24905254 24905255#0 24905256#0 24905256#2 857806575 857806576 8130905#0 4003928 3991777#0 608715536#1 608715538 586268886#3 17023727 672505868 -499072205#2 1036486943 1038991214 1036486948#0 101619135#0 101619135#3 101619135#4 101619135#7 101619135#8 101619135#10 112917227#0 35731415#0 35731415#6 35731415#7 -23436187#4 -23436187#3 -23436187#2 -23436187#0 10672174#0 10672174#1 69162801#0 69162804#2"/>
    </vehicle>
    <vehicle id="1316757.0" depart="0.00">
        <route edges="443972014#0 351276443#1 192659010 461159359 85044922#0 85044922#2 85044922#6 3677329 90168774#1 90168774#2 3677822#0 608715575#0 608715575#1 120086001#0 120086001#1 120086001#2 120086001#3 120086001#4 120086001#6 120086001#8 120086001#9 3991775#0 199381120 24905254 24905255#0 24905256#0 24905256#2 857806575 857806576 8130905#0 4003928 3991777#0 608715536#1 608715538 586268886#3 17023727 672505868 -499072205#2 1036486943 1038991214 1036486948#0 101619135#0 101619135#3 101619135#4 101619135#7 101619135#8 101619135#10 112917227#0 35731415#0 35731415#6 35731415#7 35731426#0 35731426#1 -11256343#2 11256344#0"/>
    </vehicle>
    <vehicle id="1321694.0" depart="0.00">
        <route edges="71826173#0 71826173#7 -86614478#1 77864410 1084093047 3373670 182158054#0 77864412#0 49051775 678915216 48284227 3328634#0 -265006337 -832174479#2 -832174479#0 -23119710 120086152 3358661 -120086151#1 -578662085 -301552215 956394197#0 -301552213#2 -85799069#1 -301552211#1 -301552210#2 174886300 120125393#3 578662068 174886292 174886289 3328222#0 3677822#0 608715575#0 608715575#1 120086001#0 120086001#1 120086001#2 120086001#3 120086001#4 120086001#6 120086001#8 120086001#9 3991775#0 199381120 24905254 24905255#0 24905256#0 24905256#2 857806575 857806576 8130905#0 4003928 3991777#0 608715536#1 608715538 586268886#3 17023727 672505868 -499072205#2 1036486943 1038991214 1036486948#0 101619135#0 101619135#3 101619135#4 101619135#7 101619135#8 101619135#10 112917227#0 35731415#0 35731415#6 35731415#7 -23436187#4 -23436187#3 -23436187#2 -23436187#0 -23436182 -1227802094#0 -11094212#3"/>
    </vehicle>
    <vehicle id="1322185.0" depart="0.00">
        <route edges="-140368399 -3424579#4 4009885 4009884#0 4009884#1 185488466#0 -3424510#3 85044922#2 85044922#6 3677329 90168774#1 90168774#2 3677822#0 608715575#0 608715575#1 120086001#0 120086001#1 120086001#2 120086001#3 120086001#4 120086001#6 120086001#8 120086001#9 3991775#0 199381120 24905254 24905255#0 24905256#0 24905256#2 857806575 857806576 8130905#0 4003928 3991777#0 608715536#1 608715538 586268886#3 17023727 672505868 -499072205#2 1036486943 1038991214 1036486948#0 101619135#0 101619135#3 101619135#4 101619135#7 101619135#8 101619135#10 112917227#0 35731415#0 35731415#6 35731415#7 35731426#0 35731426#1 11256343#3 -800673084#1 -192706272#3 -11256172#1 -11256172#0"/>
    </vehicle>
    <vehicle id="1360048.0" depart="0.00">
        <route edges="-499158420 3424579#0 3424579#5 85044922#6 3677329 90168774#1 90168774#2 3677822#0 608715575#0 608715575#1 120086001#0 120086001#1 120086001#2 120086001#3 120086001#4 120086001#6 120086001#8 120086001#9 3991775#0 199381120 24905254 24905255#0 24905256#0 24905256#2 857806575 857806576 8130905#0 4003928 3991777#0 608715536#1 608715538 586268886#3 17023727 672505868 -499072205#2 1036486943 1038991214 1036486948#0 101619135#0 101619135#3 101619135#4 101619135#7 101619135#8 101619135#10 112917227#0 35731415#0 35731415#6 35731415#7 35731426#0 35731426#1 -11256343#2 -11256343#0 608754692#0 -124754547#2 -124754547#1 23707021#0"/>
    </vehicle>
    <vehicle id="1366470.0" depart="0.00">
        <route edges="-4009884#0 4009884#0 4009884#1 185488466#0 -3424510#3 85044922#2 85044922#6 3677329 90168774#1 90168774#2 3677822#0 608715575#0 608715575#1 120086001#0 120086001#1 120086001#2 120086001#3 120086001#4 120086001#6 120086001#8 120086001#9 3991775#0 199381120 24905254 24905255#0 24905256#0 24905256#2 857806575 857806576 8130905#0 4003928 3991777#0 608715536#1 608715538 586268886#3 17023727 672505868 -499072205#2 1036486943 1038991214 1036486948#0 101619135#0 101619135#3 101619135#4 101619135#7 101619135#8 101619135#10 112917227#0 35731415#0 35731415#6 35731415#7 -23436187#4 -23436187#3 -23436187#2 -23436187#0 -23436182 -69162793#2 69162796#1 69162804#0"/>
    </vehicle>
    <vehicle id="1371164.0" depart="0.00">
        <route edges="-86614478#1 77864410 1084093047 3373670 182158054#0 77864412#0 49051775 678915216 48284227 3328634#0 -265006337 -832174479#2 -832174479#0 -23119710 120086152 3358661 -120086151#1 -578662085 -301552215 956394197#0 -301552213#2 -85799069#1 -301552211#1 -301552210#2 174886300 120125393#3 578662068 174886292 174886289 3328222#0 3677822#0 608715575#0 608715575#1 120086001#0 120086001#1 120086001#2 120086001#3 120086001#4 120086001#6 120086001#8 120086001#9 3991775#0 199381120 24905254 24905255#0 24905256#0 24905256#2 857806575 857806576 8130905#0 4003928 3991777#0 608715536#1 608715538 586268886#3 17023727 672505868 -499072205#2 1036486943 1038991214 1036486948#0 101619135#0 101619135#3 101619135#4 101619135#7 101619135#8 101619135#10 112917227#0 35731415#0 35731415#6 35731415#7 -23436187#4 -23436187#3 -23436187#2 -23436187#0 10672174#0 10672174#1"/>
    </vehicle>
    <vehicle id="1388037.0" depart="0.00">
        <route edges="-114935425#2 351276438#0 443972008#1 443972014#0 125736654 331957591 23832344"/>
    </vehicle>
    <vehicle id="1388037sub.0" type="bici" depart="0.00">
        <route edges="23832344 351276443#1 192659010 85044935#0 3390192 461159345 88361317#0 3677944#0 3677944#1 174338458#1 521193380 429706864 813979472 79289746 813979470 249333186 249333185 8131121 8131121-AddedOffRampEdge 225605630 23837544-AddedOnRampEdge 23837544 146171871 3877105 8131125 3993387 109267417 3993388 1085888987 254800932#0 23691158 254800931 62268125 263138305#0 44932918#0 12714939 320591282#0 12715116#0 23707244 23707243#0 23707243#2 940912606#0 608715553#0 608715553#4 608715553#5 24905455#1 24905455#5 521257409#0 521257409#2 521257409#5 521257409#6 688336520#0 688336521 485293334#0 -940919066 -126304950#4 -126304950#0 -688347308#2"/>
    </vehicle>
    <vehicle id="1388037sub2.0" type="pedone" depart="0.00">
        <route edges="-688347308#2 688347309 688347311#3 -11094212#1 -14360292#6 -14360292#5 23707022#0"/>
    </vehicle>
    <vehicle id="1391191.0" depart="0.00">